Warning : voltage source v2 has non-increasing PWL time points.
Note: v2: dc value used for op instead of transient time=0 value.
Note: Starting dynamic gmin stepping
Note: Dynamic gmin stepping completed

Note: No compatibility mode selected!


Circuit: ** sch_path: /home/eg/eda/designs/hpamplifier/ota_telescopic/autotestbench/tb/ota_telescopic_top_tb_ol_io.sch

Doing analysis at TEMP = 125.000000 and TNOM = 27.000000

Using SPARSE 1.3 as Direct Linear Solver
 Reference value :  1.00000e+00
No. of Data Rows : 121
ao                  =  4.734338e+01
bw                  =  3.239625e+06
ugbw                =  7.162513e+08
phase               =  -1.195692e+02
pm = 6.043080e+01
freq180             =  2.643530e+09
gain                =  -1.469370e+01
ugbw7db             =  3.341291e+08

Warning: command 'plot' is not available during batch simulation, ignored!
    You may use Gnuplot instead.


Warning: command 'plot' is not available during batch simulation, ignored!
    You may use Gnuplot instead.


Warning: command 'plot' is not available during batch simulation, ignored!
    You may use Gnuplot instead.

Note: v2: dc value used for op instead of transient time=0 value.
ugbw4db             =  4.662926e+08
gm = 1.469370e+01
binary raw file "AC_OL.raw"
binary raw file "/home/eg/eda/designs/HPAmplifier/OTA_Telescopic/AutoTestbench/runs/OTA_Telescopic_TOP_TB_OL_io/sch/SS/sim.raw"
Doing analysis at TEMP = 125.000000 and TNOM = 27.000000

Using SPARSE 1.3 as Direct Linear Solver

Total analysis time (seconds) = 7.25921

Total elapsed time (seconds) = 8.684 

Total DRAM available = 5804.918 MB.
DRAM currently available =  257.027 MB.
Maximum ngspice program size =  568.496 MB.
Current ngspice program size =   53.812 MB.

Shared ngspice pages =   11.453 MB.
Text (code) pages =    6.383 MB.
Stack = 0 bytes.
Library pages =   98.227 MB.

