Warning : voltage source v2 has non-increasing PWL time points.
Note: v2: dc value used for op instead of transient time=0 value.
Note: Starting dynamic gmin stepping
Note: Dynamic gmin stepping completed

Note: No compatibility mode selected!


Circuit: ** sch_path: /home/eg/eda/designs/hpamplifier/ota_telescopic/autotestbench/tb/ota_telescopic_top_tb_ol_io.sch

Doing analysis at TEMP = 65.000000 and TNOM = 27.000000

Using SPARSE 1.3 as Direct Linear Solver
 Reference value :  1.00000e+00
No. of Data Rows : 121
ao                  =  5.898679e+01
bw                  =  1.346820e+06
ugbw                =  1.164086e+09
phase               =  -1.252218e+02
pm = 5.477820e+01
freq180             =  3.251631e+09
gain                =  -1.180491e+01
ugbw7db             =  5.347662e+08

Warning: command 'plot' is not available during batch simulation, ignored!
    You may use Gnuplot instead.


Warning: command 'plot' is not available during batch simulation, ignored!
    You may use Gnuplot instead.


Warning: command 'plot' is not available during batch simulation, ignored!
    You may use Gnuplot instead.

Note: v2: dc value used for op instead of transient time=0 value.
ugbw4db             =  7.500009e+08
gm = 1.180491e+01
binary raw file "AC_OL.raw"
binary raw file "/home/eg/eda/designs/HPAmplifier/OTA_Telescopic/AutoTestbench/runs/OTA_Telescopic_TOP_TB_OL_io/sch/TT/sim.raw"
Doing analysis at TEMP = 65.000000 and TNOM = 27.000000

Using SPARSE 1.3 as Direct Linear Solver

Total analysis time (seconds) = 7.16686

Total elapsed time (seconds) = 8.581 

Total DRAM available = 5804.918 MB.
DRAM currently available =  225.617 MB.
Maximum ngspice program size =  568.480 MB.
Current ngspice program size =   52.961 MB.

Shared ngspice pages =   10.594 MB.
Text (code) pages =    6.383 MB.
Stack = 0 bytes.
Library pages =   98.219 MB.

