Warning : voltage source v2 has non-increasing PWL time points.
Note: v2: dc value used for op instead of transient time=0 value.
Warning: singular matrix:  check node x1.x16.a_3041_6417#

Note: Starting dynamic gmin stepping
Warning: singular matrix:  check node x1.x16.a_3041_6417#

Warning: Dynamic gmin stepping failed
Note: Starting true gmin stepping
Warning: singular matrix:  check node x1.x16.a_3041_6417#

Warning: singular matrix:  check node x1.x16.a_3041_6417#

Warning: singular matrix:  check node x1.x16.a_3041_6417#

Warning: singular matrix:  check node x1.x16.a_3041_6417#

Warning: True gmin stepping failed
Note: Starting source stepping
Warning: source stepping failed
Note: Transient op started
Note: Transient op finished successfully

Note: No compatibility mode selected!


Circuit: ** sch_path: /home/eg/eda/designs/hpamplifier/ota_telescopic/autotestbench/tb/ota_telescopic_top_tb_ol_io.sch

Doing analysis at TEMP = 0.000000 and TNOM = 27.000000

Using SPARSE 1.3 as Direct Linear Solver
 Reference value :  1.00000e+00 Reference value :  6.30957e+00 Reference value :  3.98107e+01 Reference value :  2.51189e+02 Reference value :  1.25893e+03 Reference value :  6.30957e+03 Reference value :  3.98107e+04 Reference value :  2.51189e+05 Reference value :  1.00000e+06 Reference value :  6.30957e+06 Reference value :  3.98107e+07 Reference value :  2.51189e+08 Reference value :  1.58489e+09 Reference value :  1.00000e+10 Reference value :  6.30957e+10 Reference value :  3.16228e+11
No. of Data Rows : 121
ao                  =  5.370741e+01
bw                  =  1.527293e+06
ugbw                =  7.325398e+08
phase               =  -1.146015e+02
pm = 6.539850e+01
freq180             =  2.966503e+09
gain                =  -1.544831e+01
ugbw7db             =  3.315445e+08

Warning: command 'plot' is not available during batch simulation, ignored!
    You may use Gnuplot instead.


Warning: command 'plot' is not available during batch simulation, ignored!
    You may use Gnuplot instead.


Warning: command 'plot' is not available during batch simulation, ignored!
    You may use Gnuplot instead.

Note: v2: dc value used for op instead of transient time=0 value.
ugbw4db             =  4.672380e+08
gm = 1.544831e+01
binary raw file "AC_OL.raw"
binary raw file "/home/eg/eda/designs/HPAmplifier/OTA_Telescopic/AutoTestbench/runs/OTA_Telescopic_TOP_TB_OL_io/pex/FF/sim.raw"
Doing analysis at TEMP = 0.000000 and TNOM = 27.000000

Using SPARSE 1.3 as Direct Linear Solver

Total analysis time (seconds) = 43.9149

Total elapsed time (seconds) = 48.656 

Total DRAM available = 5804.918 MB.
DRAM currently available =  530.867 MB.
Maximum ngspice program size =  681.070 MB.
Current ngspice program size =  166.441 MB.

Shared ngspice pages =   11.367 MB.
Text (code) pages =    6.383 MB.
Stack = 0 bytes.
Library pages =  210.855 MB.

