Warning : voltage source v2 has non-increasing PWL time points.
Note: v2: dc value used for op instead of transient time=0 value.
Warning: singular matrix:  check node x1.x16.a_3041_6417#

Note: Starting dynamic gmin stepping
Warning: singular matrix:  check node x1.x16.a_3041_6417#

Warning: Dynamic gmin stepping failed
Note: Starting true gmin stepping
Warning: singular matrix:  check node x1.x16.a_3041_6417#

Warning: singular matrix:  check node x1.x16.a_3041_6417#

Warning: singular matrix:  check node x1.x16.a_3041_6417#

Warning: singular matrix:  check node x1.x16.a_3041_6417#

Warning: True gmin stepping failed
Note: Starting source stepping
Warning: source stepping failed
Note: Transient op started
Note: Transient op finished successfully

Note: No compatibility mode selected!


Circuit: ** sch_path: /home/eg/eda/designs/hpamplifier/ota_telescopic/autotestbench/tb/ota_telescopic_top_tb_ol_io.sch

Doing analysis at TEMP = 125.000000 and TNOM = 27.000000

Using SPARSE 1.3 as Direct Linear Solver
OSDI(debug) n.x1.x16.x1327.nr1: OSDI(debug) n.x1.x16.x1319.nr1: WARNING: V(i1,c) voltage is greater than specified by vmax
OSDI(debug) n.x1.x16.x1327.nr1: WARNING: V(i2,c) voltage is greater than specified by vmax
WARNING: V(i1,c) voltage is greater than specified by vmax
OSDI(debug) n.x1.x16.x1319.nr1: WARNING: V(i2,c) voltage is greater than specified by vmax
OSDI(debug) n.x1.x16.x629.nr1: WARNING: V(i1,c) voltage is greater than specified by vmax
OSDI(debug) n.x1.x16.x629.nr1: WARNING: V(i2,c) voltage is greater than specified by vmax
OSDI(debug) n.x1.x16.x521.nr1: WARNING: V(i1,c) voltage is greater than specified by vmax
OSDI(debug) n.x1.x16.x521.nr1: WARNING: V(i2,c) voltage is greater than specified by vmax
OSDI(debug) n.x1.x16.x402.nr1: WARNING: V(i1,c) voltage is greater than specified by vmax
OSDI(debug) n.x1.x16.x402.nr1: WARNING: V(i2,c) voltage is greater than specified by vmax
OSDI(debug) n.x1.x16.x1205.nr1: OSDI(debug) n.x1.x16.x5.nr1: WARNING: V(i1,c) voltage is greater than specified by vmax
WARNING: V(i1,c) voltage is greater than specified by vmax
OSDI(debug) n.x1.x16.x5.nr1: WARNING: V(i2,c) voltage is greater than specified by vmax
OSDI(debug) n.x1.x16.x1205.nr1: WARNING: V(i2,c) voltage is greater than specified by vmax
OSDI(debug) n.x1.x10.x5.xr1.nr1: WARNING: V(i1,c) voltage is greater than specified by vmax
OSDI(debug) n.x1.x10.x5.xr1.nr1: WARNING: V(i2,c) voltage is greater than specified by vmax
OSDI(debug) n.x1.x8.x5.xr1.nr1: WARNING: V(i1,c) voltage is greater than specified by vmax
OSDI(debug) n.x1.x8.x5.xr1.nr1: WARNING: V(i2,c) voltage is greater than specified by vmax
 Reference value :  1.00000e+00 Reference value :  6.30957e+00 Reference value :  3.16228e+01 Reference value :  3.16228e+02 Reference value :  1.99526e+03 Reference value :  1.25893e+04 Reference value :  7.94328e+04 Reference value :  5.01187e+05 Reference value :  3.16228e+06 Reference value :  1.99526e+07 Reference value :  1.25893e+08 Reference value :  1.25893e+09 Reference value :  3.16228e+10 Reference value :  5.01187e+11
No. of Data Rows : 121
ao                  =  4.705846e+01
bw                  =  3.220806e+06
ugbw                =  6.839919e+08
phase               =  -1.212451e+02
pm = 5.875490e+01
freq180             =  2.423061e+09
gain                =  -1.460548e+01
ugbw7db             =  3.200862e+08

Warning: command 'plot' is not available during batch simulation, ignored!
    You may use Gnuplot instead.


Warning: command 'plot' is not available during batch simulation, ignored!
    You may use Gnuplot instead.


Warning: command 'plot' is not available during batch simulation, ignored!
    You may use Gnuplot instead.

Note: v2: dc value used for op instead of transient time=0 value.
ugbw4db             =  4.478093e+08
gm = 1.460548e+01
binary raw file "AC_OL.raw"
binary raw file "/home/eg/eda/designs/HPAmplifier/OTA_Telescopic/AutoTestbench/runs/OTA_Telescopic_TOP_TB_OL_io/pex/SS/sim.raw"
Doing analysis at TEMP = 125.000000 and TNOM = 27.000000

Using SPARSE 1.3 as Direct Linear Solver

Total analysis time (seconds) = 44.6775

Total elapsed time (seconds) = 49.405 

Total DRAM available = 5804.918 MB.
DRAM currently available =  678.656 MB.
Maximum ngspice program size =  681.102 MB.
Current ngspice program size =  166.418 MB.

Shared ngspice pages =   11.402 MB.
Text (code) pages =    6.383 MB.
Stack = 0 bytes.
Library pages =  210.906 MB.

