Warning : voltage source v2 has non-increasing PWL time points.
Note: v2: dc value used for op instead of transient time=0 value.
Note: Starting dynamic gmin stepping
Note: Dynamic gmin stepping completed

Note: No compatibility mode selected!


Circuit: ** sch_path: /home/eg/eda/designs/hpamplifier/ota_telescopic/autotestbench/tb/ota_telescopic_top_tb_ol_io.sch

Doing analysis at TEMP = 0.000000 and TNOM = 27.000000

Using SPARSE 1.3 as Direct Linear Solver
 Reference value :  1.00000e+00
No. of Data Rows : 121
ao                  =  5.393915e+01
bw                  =  1.446343e+06
ugbw                =  7.219588e+08
phase               =  -1.109380e+02
pm = 6.906200e+01
freq180             =  3.246748e+09
gain                =  -1.592940e+01
ugbw7db             =  3.225126e+08

Warning: command 'plot' is not available during batch simulation, ignored!
    You may use Gnuplot instead.


Warning: command 'plot' is not available during batch simulation, ignored!
    You may use Gnuplot instead.


Warning: command 'plot' is not available during batch simulation, ignored!
    You may use Gnuplot instead.

Note: v2: dc value used for op instead of transient time=0 value.
ugbw4db             =  4.570458e+08
gm = 1.592940e+01
binary raw file "AC_OL.raw"
binary raw file "/home/eg/eda/designs/HPAmplifier/OTA_Telescopic/AutoTestbench/runs/OTA_Telescopic_TOP_TB_OL_io/sch/FF/sim.raw"
Doing analysis at TEMP = 0.000000 and TNOM = 27.000000

Using SPARSE 1.3 as Direct Linear Solver

Total analysis time (seconds) = 6.52182

Total elapsed time (seconds) = 7.947 

Total DRAM available = 5804.918 MB.
DRAM currently available =  187.539 MB.
Maximum ngspice program size =  568.484 MB.
Current ngspice program size =   53.395 MB.

Shared ngspice pages =   11.008 MB.
Text (code) pages =    6.383 MB.
Stack = 0 bytes.
Library pages =   98.219 MB.

